* CPE alpha = 9.500000e-01
* given C_frac = 8.500000e+03
* CPE |Z|   = 5.461478e-04 Ohms
*  at f0    = 3.162278e-02Hz or 1.986918e-01 rad/* CPE fmin/fmax = 1.0000e-05/1.0000e+02
* CPE k = 1.931873
* CPE k_f = 2.000000e+00, recommended k_f value = 2.000000e+00
.subckt test.inc cpe1 cpe2
* branch -10, centre frequency = 6.476345e+01,
C1 cpe1 n1 2.17245837705336328e+02
R1 cpe2 n1 1.13119822489885487e-05
* branch -9, centre frequency = 3.238172e+01,
C2 cpe1 n2 2.24906995626871264e+02
R2 cpe2 n2 2.18533092129020338e-05
* branch -8, centre frequency = 1.619086e+01,
C3 cpe1 n3 2.32838323699045844e+02
R3 cpe2 n3 4.22178105519401955e-05
* branch -7, centre frequency = 8.095431e+00,
C4 cpe1 n4 2.41049349451646663e+02
R4 cpe2 n4 8.15594338795714273e-05
* branch -6, centre frequency = 4.047715e+00,
C5 cpe1 n5 2.49549936402072547e+02
R5 cpe2 n5 1.57562440301643785e-04
* branch -5, centre frequency = 2.023858e+00,
C6 cpe1 n6 2.58350295903912183e+02
R6 cpe2 n6 3.04390570322819872e-04
* branch -4, centre frequency = 1.011929e+00,
C7 cpe1 n7 2.67460999413360980e+02
R7 cpe2 n7 5.88043820113929249e-04
* branch -3, centre frequency = 5.059644e-01,
C8 cpe1 n8 2.76892991188211795e+02
R8 cpe2 n8 1.13602577769558212e-03
* branch -2, centre frequency = 2.529822e-01,
C9 cpe1 n9 2.86657601434675257e+02
R9 cpe2 n9 2.19465713854252644e-03
* branch -1, centre frequency = 1.264911e-01,
C10 cpe1 n10 2.96766559917820985e+02
R10 cpe2 n10 4.23979811930494822e-03
* branch 0, centre frequency = 6.324555e-02,
C11 cpe1 n11 3.07232010051990528e+02
R11 cpe2 n11 8.19075006148777159e-03
* branch 1, centre frequency = 3.162278e-02,
C12 cpe1 n12 3.18066523488107237e+02
R12 cpe2 n12 1.58234860910689001e-02
* branch 2, centre frequency = 1.581139e-02,
C13 cpe1 n13 3.29283115215407008e+02
R13 cpe2 n13 3.05689601312008931e-02
* branch 3, centre frequency = 7.905694e-03,
C14 cpe1 n14 3.40895259195729807e+02
R14 cpe2 n14 5.90553382563643106e-02
* branch 4, centre frequency = 3.952847e-03,
C15 cpe1 n15 3.52916904549153855e+02
R15 cpe2 n15 1.14087393277535060e-01
* branch 5, centre frequency = 1.976424e-03,
C16 cpe1 n16 3.65362492310414382e+02
R16 cpe2 n16 2.20402315678214611e-01
* branch 6, centre frequency = 9.882118e-04,
C17 cpe1 n17 3.78246972776236987e+02
R17 cpe2 n17 4.25789207385499080e-01
* branch 7, centre frequency = 4.941059e-04,
C18 cpe1 n18 3.91585823464422447e+02
R18 cpe2 n18 8.22570527755537295e-01
* branch 8, centre frequency = 2.470529e-04,
C19 cpe1 n19 4.05395067706258374e+02
R19 cpe2 n19 1.58910151172391312e+00
* branch 9, centre frequency = 1.235265e-04,
C20 cpe1 n20 4.19691293894589649e+02
R20 cpe2 n20 3.06994176104703742e+00
* branch 10, centre frequency = 6.176324e-05,
C21 cpe1 n21 4.34491675410671405e+02
R21 cpe2 n21 5.93073654935770112e+00
* branch 11, centre frequency = 3.088162e-05,
C22 cpe1 n22 4.49813991253741221e+02
R22 cpe2 n22 1.14574277806139673e+01
* branch 12, centre frequency = 1.544081e-05,
C23 cpe1 n23 4.65676647398090381e+02
R23 cpe2 n23 2.21342914586555928e+01
CtermHF cpe1 cpe2 6.16039435339529882e+03
RtermLF cpe1 cpe2 2.06263410111971019e+01

.ends
